$DATA1 SOURCE='HSPICE' VERSION='Z-2007.03-SP1   '
.TITLE '* # file name: /home/engr/truty1/cadence/simulation/whole_ckt/hspices/'
 avg_power        temper           alter#            
  1.140e-04         25.0000           1.0000         
